12 nodes case/Alternative OLTC logic/case9xx_Bsh.m
function mpc = case9xx_Bsh
%CASE9XX_NOBSH  Extended IEEE-9 system with shunt susceptances (20 Mvar)

mpc.version = '2';
mpc.baseMVA = 100;

%% BUS DATA
% bus type Pd  Qd  Gs Bs area Vm     Va baseKV zone Vmax Vmin
mpc.bus = [
%--- Generator stator buses (20 kV)
 1   2   0   0   0  0  1  1.01   0   20   1  1.05 0.95;
 2   2   0   0   0  0  1  1.01   0   20   1  1.05 0.95;
 3   2   0   0   0  0  1  1.01   0   20   1  1.05 0.95;

%--- 63 kV network
 4   1   0   0   0   0  1  1.00   0   63   1  1.05 0.95;
 5   1 100  30   0  20  1  1.00   0   63   1  1.05 0.95;
 6   1 150  40   0  20  1  1.00   0   63   1  1.05 0.95;
 7   1   0   0   0   0  1  1.00   0   63   1  1.05 0.95;
 8   1 200  50   0  20  1  1.00   0   63   1  1.05 0.95;
 9   1   0   0   0   0  1  1.00   0   63   1  1.05 0.95;

%--- 400 kV network
10   1   0   0   0  0  1  1.00   0  400   1  1.05 0.95;
11   1   0   0   0  0  1  1.00   0  400   1  1.05 0.95;
12   3   0   0   0  0  1  1.0125 0  400   1  1.05 0.95; % SLACK
];

%% GENERATOR DATA
% bus Pg  Qg  Qmax Qmin  Vg      mBase status Pmax Pmin
mpc.gen = [
 1   80  0   60  -60   1.01     100   1   100   0;
 2   70  0   60  -60   1.01     100   1   100   0;
 3   75  0   60  -60   1.01     100   1   100   0;

%--- EHV slack generator
12  500  0  600 -600   1.0125   100   1  1000   0;
];

%% BRANCH DATA
% fbus tbus r      x      b rateA rateB rateC ratio   angle status
mpc.branch = [

%--- Generator step-up transformers (63 → 20 kV)
 4   1   0.002  0.15   0  120 120 120  1    0   1;
 7   2   0.002  0.15   0  120 120 120  1    0   1;
 9   3   0.002  0.15   0  120 120 120  1    0   1;

%--- 63 kV transmission (double circuits, no charging)
 4  5  0.020   0.095  0.0014   200    200    200    0      0      1;
 4  5  0.020   0.095  0.0014   200    200    200    0      0      1;

 4  6  0.0202  0.09595   0.001414   200 200 200    0  0       1;
 4  6  0.0202  0.09595   0.001414   200 200 200    0  0       1;

 5  7  0.0202  0.09595   0.001414   200 200 200    0  0       1;
 5  7  0.0202  0.09595   0.001414   200 200 200    0  0       1;

 6  9  0.020   0.095  0.0014   200    200    200    0      0      1;
 6  9  0.020   0.095  0.0014   200    200    200    0      0      1;

 7  8   0.01   0.10   0  200 200 200   0       0   1;
 7  8   0.01   0.10   0  200 200 200   0       0   1;

 8  9   0.01   0.10   0  200 200 200   0       0   1;
 8  9   0.01   0.10   0  200 200 200   0       0   1;

%--- 400/63 kV transformers
10 5  0.002  0.15   0  600 600 600  1  0   1;
11 6  0.002  0.15   0  600 600 600  1  0   1;

%--- 400 kV double-circuit lines
10  12   0.00047    0.00563    0.1920 1000 1000 1000  0       0   1;
10  12   0.00047    0.00563    0.1920 1000 1000 1000  0       0   1;

11  12   0.00047    0.00563    0.1920 1000 1000 1000  0       0   1;
11  12   0.00047    0.00563    0.1920 1000 1000 1000  0       0   1;
];

%% GENERATOR COST (dummy)
mpc.gencost = [
 2 0 0 2  10 0;
 2 0 0 2  10 0;
 2 0 0 2  10 0;
 2 0 0 2  20 0;
];

end
